TotalNumberOfSites=6
NumberOfTerms=1
DegreesOfFreedom=1
GeometryKind=chain
GeometryOptions=ConstantValues
Connectors
         1
        -1.0

hubbardU        6 0 0 0 0 0 0
potentialV     12 0 0 0 0 0 0 
                  0 0 0 0 0 0

Model=HubbardOneBand

SolverOptions=CorrectionVectorTargetting,twositedmrg,minimizeDisk
CorrectionA=0
Version=version
OutputFile=$data
TargetElectronsUp=4
TargetElectronsDown=0

InfiniteLoopKeptStates=64
FiniteLoops 7
 2 1000 0 -4 1000 0 
 4 1000 0 -4 1000 2  
 4 1000 2 -4 1000 2
 4 1000 2

TruncationTolerance=1e-15

DynamicDmrgType=0
TSPSites 1 2
TSPLoops 1 3
TSPProductOrSum=sum
CorrectionVectorFreqType=Real

CorrectionVectorEta=0.05
CorrectionVectorAlgorithm=Krylov

GsWeight=0.1
CorrectionVectorOmega=$omega

TSPOperator=raw
RAW_MATRIX
4 4
0 0 1 0
0 0 0 1
0 0 0 0
0 0 0 0
FERMIONSIGN=-1
JMVALUES 1 1
AngularFactor=1

#Observable=c
#OmegaBegin=0
#OmegaStep=0.1
#OmegaTotal=30

